Circuit: * C:\Users\elima\OneDrive\Documents\GitHub\Simple_Impedance_Analyzer\Impedance_Analyzer_Circ.asc

Direct Newton iteration failed to find .op point.  (Use ".option noopiter" to skip.)
Starting Gmin stepping
Gmin = 10
Gmin = 1.07374
vernier = 0.5
Gmin = 0.274568
vernier = 0.666667
vernier = 0.888888
Gmin = 0.053011
vernier = 1
Gmin = 0.006089
Gmin = 0.000653801
Gmin = 7.02013e-005
Gmin = 7.53781e-006
vernier = 0.5
vernier = 0.25
vernier = 0.125
vernier = 0.0625
Gmin = 6.30614e-006
vernier = 0.0833333
Gmin = 5.26408e-006
vernier = 0.111111
vernier = 0.148148
Gmin = 3.92274e-006
vernier = 0.197531
vernier = 0.263374
Gmin = 2.47121e-006
vernier = 0.351165
Gmin = 1.17955e-006
vernier = 0.46822
vernier = 0.23411
vernier = 0.117055
vernier = 0.0585276
Gmin = 6.23442e-007
vernier = 0.0292638
vernier = 0.0146319
vernier = 0.00731595
vernier = 0.00365797
Gmin = 6.20599e-007
vernier = 0.0048773
vernier = 0.00243865
vernier = 0.00121932
vernier = 0.000609662
vernier = 0.000457246
Gmin = 0
Gmin stepping failed

Starting source stepping with srcstepmethod=0
Source Step = 3.0303%
Source Step = 33.3333%
vernier = 0.25
Source Step = 37.8788%
Source Step = 45.4545%
Source Step = 53.0303%
Source Step = 60.6061%
Source Step = 68.1818%
vernier = 0.375
Source Step = 79.1667%
Source Step = 90.5303%
Source stepping succeeded in finding the operating point.


Date: Wed Dec 29 18:20:44 2021
Total elapsed time: 3.217 seconds.

tnom = 27
temp = 27
method = trap
totiter = 3760
traniter = 0
tranpoints = 0
accept = 0
rejected = 0
matrix size = 338
fillins = 813
solver = Normal
Matrix Compiler1:    3680 opcodes
Matrix Compiler2: 41.76 KB object code size  7.1/8.2/[3.2]

