Circuit: * C:\Users\elima\Dropbox\KiCAD Projects\Impedance_Analyzer\Elector_LCR.asc

R35: both pins shorted together -- ignoring.
Direct Newton iteration failed to find .op point.  (Use ".option noopiter" to skip.)
Starting Gmin stepping
Gmin = 10
Gmin = 1.07374
vernier = 0.5
Gmin = 0.274568
vernier = 0.666667
vernier = 0.888888
Gmin = 0.053011
vernier = 1
Gmin = 0.006089
Gmin = 0.000653801
Gmin = 7.02013e-005
Gmin = 7.53781e-006
Gmin = 8.09366e-007
vernier = 0.5
vernier = 0.25
vernier = 0.125
vernier = 0.0625
vernier = 0.03125
Gmin = 6.27872e-007
vernier = 0.015625
vernier = 0.0078125
vernier = 0.00390625
vernier = 0.00195313
vernier = 0.000976563
vernier = 0.000488281
Gmin = 0
Gmin stepping failed

Starting source stepping with srcstepmethod=0
Source Step = 3.0303%
Source Step = 33.3333%
Source Step = 63.6364%
Source Step = 93.9394%
Source stepping succeeded in finding the operating point.

Heightened Def Con from 1.53048e-007 to 1.53048e-007
Heightened Def Con from 1.53048e-007 to 1.53048e-007
Heightened Def Con from 1.53048e-007 to 1.53048e-007
Heightened Def Con from 1.53048e-007 to 1.53048e-007
Heightened Def Con from 1.53048e-007 to 1.53048e-007
Heightened Def Con from 1.53048e-007 to 1.53048e-007
Heightened Def Con from 1.53048e-007 to 1.53048e-007
Heightened Def Con from 1.53048e-007 to 1.53048e-007
Heightened Def Con from 1.53048e-007 to 1.53048e-007
Heightened Def Con from 1.53048e-007 to 1.53048e-007
Heightened Def Con from 1.53048e-007 to 1.53048e-007
Heightened Def Con from 1.53048e-007 to 1.53048e-007
Heightened Def Con from 1.53048e-007 to 1.53048e-007
Heightened Def Con from 1.53048e-007 to 1.53048e-007
Heightened Def Con from 1.53048e-007 to 1.53048e-007
Heightened Def Con from 1.53048e-007 to 1.53048e-007
Heightened Def Con from 1.53048e-007 to 1.53048e-007
Heightened Def Con from 1.53048e-007 to 1.53048e-007
Heightened Def Con from 1.53048e-007 to 1.53048e-007
Heightened Def Con from 1.53048e-007 to 1.53048e-007
Heightened Def Con from 1.53048e-007 to 1.53048e-007
Heightened Def Con from 1.53048e-007 to 1.53048e-007
Heightened Def Con from 1.53048e-007 to 1.53048e-007
Heightened Def Con from 1.53048e-007 to 1.53048e-007
Heightened Def Con from 1.53048e-007 to 1.53048e-007
Heightened Def Con from 1.53048e-007 to 1.53048e-007
Heightened Def Con from 1.53048e-007 to 1.53048e-007
Heightened Def Con from 1.53048e-007 to 1.53048e-007
Heightened Def Con from 1.53048e-007 to 1.53048e-007
Heightened Def Con from 1.53048e-007 to 1.53048e-007
Heightened Def Con from 1.53048e-007 to 1.53048e-007
Heightened Def Con from 1.53048e-007 to 1.53048e-007
Heightened Def Con from 1.53048e-007 to 1.53048e-007
Heightened Def Con from 1.53048e-007 to 1.53048e-007
Heightened Def Con from 1.53048e-007 to 1.53048e-007
Heightened Def Con from 1.53048e-007 to 1.53048e-007
Heightened Def Con from 1.53048e-007 to 1.53048e-007
Heightened Def Con from 1.53048e-007 to 1.53048e-007
Heightened Def Con from 1.53048e-007 to 1.53048e-007
Heightened Def Con from 1.53048e-007 to 1.53048e-007
Heightened Def Con from 1.53048e-007 to 1.53048e-007
Heightened Def Con from 1.53048e-007 to 1.53048e-007
Heightened Def Con from 1.53048e-007 to 1.53048e-007
Heightened Def Con from 1.53048e-007 to 1.53048e-007
Heightened Def Con from 1.53048e-007 to 1.53048e-007
Heightened Def Con from 1.53048e-007 to 1.53048e-007
Heightened Def Con from 1.53048e-007 to 1.53048e-007
Heightened Def Con from 1.53048e-007 to 1.53048e-007
Heightened Def Con from 1.53048e-007 to 1.53048e-007
Heightened Def Con from 1.53048e-007 to 1.53048e-007
Heightened Def Con from 1.53048e-007 to 1.53048e-007
Heightened Def Con from 1.53048e-007 to 1.53048e-007
Heightened Def Con from 1.53048e-007 to 1.53048e-007
Heightened Def Con from 1.53048e-007 to 1.53048e-007
Heightened Def Con from 1.53048e-007 to 1.53048e-007
Heightened Def Con from 1.53048e-007 to 1.53048e-007
Heightened Def Con from 1.53048e-007 to 1.53048e-007
Heightened Def Con from 1.53048e-007 to 1.53048e-007
Heightened Def Con from 1.53048e-007 to 1.53048e-007
Heightened Def Con from 1.53048e-007 to 1.53048e-007
Heightened Def Con from 1.53048e-007 to 1.53048e-007
Heightened Def Con from 1.53048e-007 to 1.53048e-007
Heightened Def Con from 1.53048e-007 to 1.53048e-007
Heightened Def Con from 1.53048e-007 to 1.53048e-007
Heightened Def Con from 1.53048e-007 to 1.53048e-007
Heightened Def Con from 1.53048e-007 to 1.53048e-007
Heightened Def Con from 1.53048e-007 to 1.53048e-007
Heightened Def Con from 1.53048e-007 to 1.53048e-007
Heightened Def Con from 1.53048e-007 to 1.53048e-007
Heightened Def Con from 1.53048e-007 to 1.53048e-007
Heightened Def Con from 1.53048e-007 to 1.53048e-007
Heightened Def Con from 1.53048e-007 to 1.53048e-007
Heightened Def Con from 1.53048e-007 to 1.53048e-007
Heightened Def Con from 1.53048e-007 to 1.53048e-007
Heightened Def Con from 1.53048e-007 to 1.53048e-007
Heightened Def Con from 1.53048e-007 to 1.53048e-007
Heightened Def Con from 1.53048e-007 to 1.53048e-007
Heightened Def Con from 1.53048e-007 to 1.53048e-007
Heightened Def Con from 1.53048e-007 to 1.53048e-007
Heightened Def Con from 1.53048e-007 to 1.53048e-007
Heightened Def Con from 1.53048e-007 to 1.53048e-007
Heightened Def Con from 1.53048e-007 to 1.53048e-007
Heightened Def Con from 1.53048e-007 to 1.53048e-007
Heightened Def Con from 1.53048e-007 to 1.53048e-007
Heightened Def Con from 1.53048e-007 to 1.53048e-007
Heightened Def Con from 1.53048e-007 to 1.53048e-007
Heightened Def Con from 1.53048e-007 to 1.53048e-007
Heightened Def Con from 1.53048e-007 to 1.53048e-007
Heightened Def Con from 1.53048e-007 to 1.53048e-007
Heightened Def Con from 1.53048e-007 to 1.53048e-007
Heightened Def Con from 1.53048e-007 to 1.53048e-007
Heightened Def Con from 1.53048e-007 to 1.53048e-007
Heightened Def Con from 1.53048e-007 to 1.53048e-007
Heightened Def Con from 1.53048e-007 to 1.53048e-007
Heightened Def Con from 1.53048e-007 to 1.53048e-007
Heightened Def Con from 1.53048e-007 to 1.53048e-007
Heightened Def Con from 1.53048e-007 to 1.53048e-007
Heightened Def Con from 1.53048e-007 to 1.53048e-007
Heightened Def Con from 1.53048e-007 to 1.53048e-007
Heightened Def Con from 1.53048e-007 to 1.53048e-007
Heightened Def Con from 1.53048e-007 to 1.53048e-007
Heightened Def Con from 1.53048e-007 to 1.53048e-007
Heightened Def Con from 1.53048e-007 to 1.53048e-007
Heightened Def Con from 1.53048e-007 to 1.53048e-007
Heightened Def Con from 1.53048e-007 to 1.53048e-007
Heightened Def Con from 1.53048e-007 to 1.53048e-007
Heightened Def Con from 1.53048e-007 to 1.53048e-007
Heightened Def Con from 1.53048e-007 to 1.53048e-007
Heightened Def Con from 1.53048e-007 to 1.53048e-007
Heightened Def Con from 1.53048e-007 to 1.53048e-007
Heightened Def Con from 1.53048e-007 to 1.53048e-007
Heightened Def Con from 1.53048e-007 to 1.53048e-007
Heightened Def Con from 1.53048e-007 to 1.53048e-007
Heightened Def Con from 1.53048e-007 to 1.53048e-007
Heightened Def Con from 1.53048e-007 to 1.53048e-007
Heightened Def Con from 1.53048e-007 to 1.53048e-007
Heightened Def Con from 1.53048e-007 to 1.53048e-007
Heightened Def Con from 1.53048e-007 to 1.53048e-007
Heightened Def Con from 1.53048e-007 to 1.53048e-007
Heightened Def Con from 1.53048e-007 to 1.53048e-007
Heightened Def Con from 1.53048e-007 to 1.53048e-007
Heightened Def Con from 1.53048e-007 to 1.53048e-007
Heightened Def Con from 1.53048e-007 to 1.53048e-007
Heightened Def Con from 1.53048e-007 to 1.53048e-007
Heightened Def Con from 1.53048e-007 to 1.53048e-007
Heightened Def Con from 1.53048e-007 to 1.53048e-007
Heightened Def Con from 1.53048e-007 to 1.53048e-007
Heightened Def Con from 1.53048e-007 to 1.53048e-007
Heightened Def Con from 1.53048e-007 to 1.53048e-007
Heightened Def Con from 1.53048e-007 to 1.53048e-007
Heightened Def Con from 1.53048e-007 to 1.53048e-007
Heightened Def Con from 1.53048e-007 to 1.53048e-007
Heightened Def Con from 1.53048e-007 to 1.53048e-007
Heightened Def Con from 1.53048e-007 to 1.53048e-007
Heightened Def Con from 1.53048e-007 to 1.53048e-007
Heightened Def Con from 1.53048e-007 to 1.53048e-007
Heightened Def Con from 1.53048e-007 to 1.53048e-007
Heightened Def Con from 1.53048e-007 to 1.53048e-007
Heightened Def Con from 1.53048e-007 to 1.53048e-007
Heightened Def Con from 1.53048e-007 to 1.53048e-007
Heightened Def Con from 1.53048e-007 to 1.53048e-007
Heightened Def Con from 1.53048e-007 to 1.53048e-007
Heightened Def Con from 1.53048e-007 to 1.53048e-007
Heightened Def Con from 1.53048e-007 to 1.53048e-007
Heightened Def Con from 1.53048e-007 to 1.53048e-007
Heightened Def Con from 1.53048e-007 to 1.53048e-007
Heightened Def Con from 1.53048e-007 to 1.53048e-007
Heightened Def Con from 1.53048e-007 to 1.53048e-007
Heightened Def Con from 1.53048e-007 to 1.53048e-007
Heightened Def Con from 1.53048e-007 to 1.53048e-007
Heightened Def Con from 1.53048e-007 to 1.53048e-007
Heightened Def Con from 1.53048e-007 to 1.53048e-007
Heightened Def Con from 1.53048e-007 to 1.53048e-007
Heightened Def Con from 1.53048e-007 to 1.53048e-007
Heightened Def Con from 1.53048e-007 to 1.53048e-007
Heightened Def Con from 1.53048e-007 to 1.53048e-007
Heightened Def Con from 1.53048e-007 to 1.53048e-007
Heightened Def Con from 1.53048e-007 to 1.53048e-007
Heightened Def Con from 1.53048e-007 to 1.53048e-007
Heightened Def Con from 1.53048e-007 to 1.53048e-007
Heightened Def Con from 1.53048e-007 to 1.53048e-007
Heightened Def Con from 1.53048e-007 to 1.53048e-007
Heightened Def Con from 1.53048e-007 to 1.53048e-007
Heightened Def Con from 1.53048e-007 to 1.53048e-007
Heightened Def Con from 1.53048e-007 to 1.53048e-007
Heightened Def Con from 1.53048e-007 to 1.53048e-007
Heightened Def Con from 1.53048e-007 to 1.53048e-007
Heightened Def Con from 1.53048e-007 to 1.53048e-007
Heightened Def Con from 1.53048e-007 to 1.53048e-007
Heightened Def Con from 1.53048e-007 ++++++++++++++++++++to 1.53066e-007
Heightened Def Con from 1.53066e-007 ++++++++++++++to 1.53066e-007
Heightened Def Con from 1.53066e-007 ++++++++++++++to 1.53066e-007
Heightened Def Con from 1.53066e-007 ++++++++++++++to 1.53066e-007
Heightened Def Con from 1.53066e-007 ++++++++++++++to 1.53066e-007
Heightened Def Con from 1.53066e-007 ++++++++++++++to 1.53066e-007
Heightened Def Con from 1.53066e-007 ++++++++++++++to 1.53066e-007
Heightened Def Con from 1.53066e-007 ++++++++++++++to 1.53066e-007
Heightened Def Con from 1.53066e-007 ++++++++++++++to 1.53066e-007
Heightened Def Con from 1.53066e-007 ++++++++++++++to 1.53066e-007
Heightened Def Con from 1.53066e-007 ++++++++++++++to 1.53066e-007
Heightened Def Con from 1.53066e-007 ++++++++++++++to 1.53066e-007
Heightened Def Con from 1.53066e-007 ++++++++++++++to 1.53066e-007
Heightened Def Con from 1.53066e-007 ++++++++++++++to 1.53066e-007
Heightened Def Con from 1.53066e-007 ++++++++++++++to 1.53066e-007
Heightened Def Con from 1.53066e-007 ++++++++++++++to 1.53066e-007
Heightened Def Con from 1.53066e-007 ++++++++++++++to 1.53066e-007
Heightened Def Con from 1.53066e-007 ++++++++++++++to 1.53066e-007
Heightened Def Con from 1.53066e-007 ++++++++++++++to 1.53066e-007
Heightened Def Con from 1.53066e-007 ++++++++++++++to 1.53066e-007
Heightened Def Con from 1.53066e-007 ++++++++++++++to 1.53066e-007
Heightened Def Con from 1.53066e-007 ++++++++++++++to 1.53066e-007
Heightened Def Con from 1.53066e-007 ++++++++++++++to 1.53066e-007
Heightened Def Con from 1.53066e-007 ++++++++++++++to 1.53066e-007
Heightened Def Con from 1.53066e-007 ++++++++++++++to 1.53066e-007
Heightened Def Con from 1.53066e-007 ++++++++++++++to 1.53066e-007
Heightened Def Con from 1.53066e-007 ++++++++++++++to 1.53066e-007
Heightened Def Con from 1.53066e-007 ++++++++++++++to 1.53066e-007
Heightened Def Con from 1.53066e-007 ++++++++++++++to 1.53066e-007
Heightened Def Con from 1.53066e-007 ++++++++++++++to 1.53066e-007
Heightened Def Con from 1.53066e-007 ++++++++++++++to 1.53066e-007
Heightened Def Con from 1.53066e-007 ++++++++++++++to 1.53066e-007
Heightened Def Con from 1.53066e-007 ++++++++++++++to 1.53066e-007
Heightened Def Con from 1.53066e-007 ++++++++++++++to 1.53066e-007
Heightened Def Con from 1.53066e-007 ++++++++++++++to 1.53066e-007
Heightened Def Con from 1.53066e-007 ++++++++++++++to 1.53066e-007
Heightened Def Con from 1.53066e-007 ++++++++++++++to 1.53066e-007
Heightened Def Con from 1.53066e-007 ++++++++++++++to 1.53066e-007
Heightened Def Con from 1.53066e-007 ++++++++++++++to 1.53066e-007
Heightened Def Con from 1.53066e-007 ++++++++++++++to 1.53066e-007
Heightened Def Con from 1.53066e-007 ++++++++++++++to 1.53066e-007
Heightened Def Con from 1.53066e-007 ++++++++++++++to 1.53066e-007
Heightened Def Con from 1.53066e-007 ++++++++++++++to 1.53066e-007
Heightened Def Con from 1.53066e-007 ++++++++++++++to 1.53066e-007
Heightened Def Con from 1.53066e-007 ++++++++++++++to 1.53066e-007
Heightened Def Con from 1.53066e-007 ++++++++++++++to 1.53066e-007
Heightened Def Con from 1.53066e-007 ++++++++++++++to 1.53066e-007
Heightened Def Con from 1.53066e-007 ++++++++++++++to 1.53066e-007
Heightened Def Con from 1.53066e-007 ++++++++++++++to 1.53066e-007
Heightened Def Con from 1.53066e-007 ++++++++++++++to 1.53066e-007
Heightened Def Con from 1.53066e-007 ++++++++++++++to 1.53066e-007
Heightened Def Con from 1.53066e-007 ++++++++++++++to 1.53066e-007
Heightened Def Con from 1.53066e-007 ++++++++++++++to 1.53066e-007
Heightened Def Con from 1.53066e-007 ++++++++++++++to 1.53066e-007
Heightened Def Con from 1.53066e-007 ++++++++++++++to 1.53066e-007
Heightened Def Con from 1.53066e-007 ++++++++++++++to 1.53066e-007
Heightened Def Con from 1.53066e-007 ++++++++++++++to 1.53066e-007
Heightened Def Con from 1.53066e-007 ++++++++++++++to 1.53066e-007
Heightened Def Con from 1.53066e-007 ++++++++++++++to 1.53066e-007
Heightened Def Con from 1.53066e-007 ++++++++++++++to 1.53066e-007
Heightened Def Con from 1.53066e-007 ++++++++++++++to 1.53066e-007
Heightened Def Con from 1.53066e-007 ++++++++++++++to 1.53066e-007
Heightened Def Con from 1.53066e-007 ++++++++++++++to 1.53066e-007
Heightened Def Con from 1.53066e-007 ++++++++++++++to 1.53066e-007
Heightened Def Con from 1.53066e-007 ++++++++++++++to 1.53066e-007
Heightened Def Con from 1.53066e-007 ++++++++++++++to 1.53066e-007
Heightened Def Con from 1.53066e-007 ++++++++++++++to 1.53066e-007
Heightened Def Con from 1.53066e-007 ++++++++++++++to 1.53066e-007
Heightened Def Con from 1.53066e-007 ++++++++++++++to 1.53066e-007
Heightened Def Con from 1.53066e-007 ++++++++++++++to 1.53066e-007
Heightened Def Con from 1.53066e-007 ++++++++++++++to 1.53066e-007
Heightened Def Con from 1.53066e-007 ++++++++++++++to 1.53066e-007
Heightened Def Con from 1.53066e-007 ++++++++++++++to 1.53066e-007
Heightened Def Con from 1.53066e-007 ++++++++++++++to 1.53066e-007
Heightened Def Con from 1.53066e-007 ++++++++++++++to 1.53066e-007
Heightened Def Con from 1.53066e-007 ++++++++++++++to 1.53066e-007
Heightened Def Con from 1.53066e-007 ++++++++++++++to 1.53066e-007
Heightened Def Con from 1.53066e-007 ++++++++++++++to 1.53066e-007
Heightened Def Con from 1.53066e-007 ++++++++++++++to 1.53066e-007
Heightened Def Con from 1.53066e-007 ++++++++++++++to 1.53066e-007
Heightened Def Con from 1.53066e-007 ++++++++++++++to 1.53066e-007
Heightened Def Con from 1.53066e-007 ++++++++++++++to 1.53066e-007
Heightened Def Con from 1.53066e-007 ++++++++++++++to 1.53066e-007
Heightened Def Con from 1.53066e-007 ++++++++++++++to 1.53066e-007
Heightened Def Con from 1.53066e-007 ++++++++++++++to 1.53066e-007
Heightened Def Con from 1.53066e-007 ++++++++++++++to 1.53066e-007
Heightened Def Con from 1.53066e-007 ++++++++++++++to 1.53066e-007
Heightened Def Con from 1.53066e-007 ++++++++++++++to 1.53066e-007
Heightened Def Con from 1.53066e-007 ++++++++++++++to 1.53066e-007
Heightened Def Con from 1.53066e-007 ++++++++++++++to 1.53066e-007
Heightened Def Con from 1.53066e-007 ++++++++++++++to 1.53066e-007
Heightened Def Con from 1.53066e-007 ++++++++++++++to 1.53066e-007
Heightened Def Con from 1.53066e-007 ++++++++++++++to 1.53066e-007
Heightened Def Con from 1.53066e-007 ++++++++++++++to 1.53066e-007
Heightened Def Con from 1.53066e-007 ++++++++++++++to 1.53066e-007
Heightened Def Con from 1.53066e-007 ++++++++++++++to 1.53066e-007
Heightened Def Con from 1.53066e-007 ++++++++++++++to 1.53066e-007
Heightened Def Con from 1.53066e-007 ++++++++++++++to 1.53066e-007
Heightened Def Con from 1.53066e-007 ++++++++++++++to 1.53066e-007
Heightened Def Con from 1.53066e-007 ++++++++++++++to 1.53066e-007
Heightened Def Con from 1.53066e-007 ++++++++++++++to 1.53066e-007
Heightened Def Con from 1.53066e-007 ++++++++++++++to 1.53066e-007
Heightened Def Con from 1.53066e-007 ++++++++++++++to 1.53066e-007
Heightened Def Con from 1.53066e-007 ++++++++++++++to 1.53066e-007
Heightened Def Con from 1.53066e-007 ++++++++++++++to 1.53066e-007
Heightened Def Con from 1.53066e-007 ++++++++++++++to 1.53066e-007
Heightened Def Con from 1.53066e-007 ++++++++++++++to 1.53066e-007
Heightened Def Con from 1.53066e-007 ++++++++++++++to 1.53066e-007
Heightened Def Con from 1.53066e-007 ++++++++++++++to 1.53066e-007
Heightened Def Con from 1.53066e-007 ++++++++++++++to 1.53066e-007
Heightened Def Con from 1.53066e-007 ++++++++++++++to 1.53066e-007
Heightened Def Con from 1.53066e-007 ++++++++++++++to 1.53066e-007
Heightened Def Con from 1.53066e-007 ++++++++++++++to 1.53066e-007
Heightened Def Con from 1.53066e-007 ++++++++++++++to 1.53066e-007
Heightened Def Con from 1.53066e-007 ++++++++++++++to 1.53066e-007
Heightened Def Con from 1.53066e-007 ++++++++++++++to 1.53066e-007
Heightened Def Con from 1.53066e-007 ++++++++++++++to 1.53066e-007
Heightened Def Con from 1.53066e-007 ++++++++++++++to 1.53066e-007
Heightened Def Con from 1.53066e-007 ++++++++++++++to 1.53066e-007
Heightened Def Con from 1.53066e-007 ++++++++++++++to 1.53066e-007
Heightened Def Con from 1.53066e-007 ++++++++++++++to 1.53066e-007
Heightened Def Con from 1.53066e-007 ++++++++++++++to 1.53066e-007
Heightened Def Con from 1.53066e-007 ++++++++++++++to 1.53066e-007
Heightened Def Con from 1.53066e-007 ++++++++++++++to 1.53066e-007
Heightened Def Con from 1.53066e-007 ++++++++++++++to 1.53066e-007
Heightened Def Con from 1.53066e-007 ++++++++++++++to 1.53066e-007
Heightened Def Con from 1.53066e-007 ++++++++++++++to 1.53066e-007
Heightened Def Con from 1.53066e-007 ++++++++++++++to 1.53066e-007
Heightened Def Con from 1.53066e-007 ++++++++++++++to 1.53066e-007
Heightened Def Con from 1.53066e-007 ++++++++++++++to 1.53066e-007
Heightened Def Con from 1.53066e-007 ++++++++++++++to 1.53066e-007
Heightened Def Con from 1.53066e-007 ++++++++++++++to 1.53066e-007
Heightened Def Con from 1.53066e-007 ++++++++++++++to 1.53066e-007
Heightened Def Con from 1.53066e-007 ++++++++++++++to 1.53066e-007
Heightened Def Con from 1.53066e-007 ++++++++++++++to 1.53066e-007
Heightened Def Con from 1.53066e-007 ++++++++++++++to 1.53066e-007
Heightened Def Con from 1.53066e-007 ++++++++++++++to 1.53066e-007
Heightened Def Con from 1.53066e-007 ++++++++++++++to 1.53066e-007
Heightened Def Con from 1.53066e-007 ++++++++++++++to 1.53066e-007
Heightened Def Con from 1.53066e-007 ++++++++++++++to 1.53066e-007
Heightened Def Con from 1.53066e-007 ++++++++++++++to 1.53066e-007
Heightened Def Con from 1.53066e-007 ++++++++++++++to 1.53066e-007
Heightened Def Con from 1.53066e-007 ++++++++++++++to 1.53066e-007
Heightened Def Con from 1.53066e-007 ++++++++++++++to 1.53066e-007
Heightened Def Con from 1.53066e-007 ++++++++++++++to 1.53066e-007
Heightened Def Con from 1.53066e-007 ++++++++++++++to 1.53066e-007
Heightened Def Con from 1.53066e-007 ++++++++++++++to 1.53066e-007
Heightened Def Con from 1.53066e-007 ++++++++++++++to 1.53066e-007
Heightened Def Con from 1.53066e-007 ++++++++++++++to 1.53066e-007
Heightened Def Con from 1.53066e-007 ++++++++++++++to 1.53066e-007
Heightened Def Con from 1.53066e-007 ++++++++++++++to 1.53066e-007
Heightened Def Con from 1.53066e-007 ++++++++++++++to 1.53066e-007
Heightened Def Con from 1.53066e-007 ++++++++++++++to 1.53066e-007
Heightened Def Con from 1.53066e-007 ++++++++++++++to 1.53066e-007
Heightened Def Con from 1.53066e-007 ++++++++++++++to 1.53066e-007
Heightened Def Con from 1.53066e-007 ++++++++++++++to 1.53066e-007
Heightened Def Con from 1.53066e-007 ++++++++++++++to 1.53066e-007
Heightened Def Con from 1.53066e-007 ++++++++++++++to 1.53066e-007
Heightened Def Con from 1.53066e-007 ++++++++++++++to 1.53066e-007
Heightened Def Con from 1.53066e-007 ++++++++++++++to 1.53066e-007
Heightened Def Con from 1.53066e-007 ++++++++++++++to 1.53066e-007
Heightened Def Con from 1.53066e-007 ++++++++++++++to 1.53066e-007
Heightened Def Con from 1.53066e-007 ++++++++++++++to 1.53066e-007
Heightened Def Con from 1.53066e-007 ++++++++++++++to 1.53066e-007
Heightened Def Con from 1.53066e-007 ++++++++++++++to 1.53066e-007
Heightened Def Con from 1.53066e-007 ++++++++++++++to 1.53066e-007
Heightened Def Con from 1.53066e-007 ++++++++++++++to 1.53066e-007
Heightened Def Con from 1.53066e-007 ++++++++++++++to 1.53066e-007
Heightened Def Con from 1.53066e-007 ++++++++++++++to 1.53066e-007
Heightened Def Con from 1.53066e-007 ++++++++++++++to 1.53066e-007
Heightened Def Con from 1.53066e-007 ++++++++++++++to 1.53066e-007
Heightened Def Con from 1.53066e-007 ++++++++++++++to 1.53066e-007
Heightened Def Con from 1.53066e-007 ++++++++++++++to 1.53066e-007
Heightened Def Con from 1.53066e-007 ++++++++++++++to 1.53066e-007
Heightened Def Con from 1.53066e-007 ++++++++++++++to 1.53066e-007
Heightened Def Con from 1.53066e-007 ++++++++++++++to 1.53066e-007
Heightened Def Con from 1.53066e-007 ++++++++++++++to 1.53066e-007
Heightened Def Con from 1.53066e-007 ++++++++++++++to 1.53066e-007
Heightened Def Con from 1.53066e-007 ++++++++++++++to 1.53066e-007
Heightened Def Con from 1.53066e-007 ++++++++++++++to 1.53066e-007
Heightened Def Con from 1.53066e-007 ++++++++++++++to 1.53066e-007
Heightened Def Con from 1.53066e-007 ++++++++++++++to 1.53066e-007
Heightened Def Con from 1.53066e-007 ++++++++++++++to 1.53066e-007
Heightened Def Con from 1.53066e-007 ++++++++++++++to 1.53066e-007
Heightened Def Con from 1.53066e-007 ++++++++++++++to 1.53066e-007
Heightened Def Con from 1.53066e-007 ++++++++++++++to 1.53066e-007
Heightened Def Con from 1.53066e-007 ++++++++++++++to 1.53066e-007
Heightened Def Con from 1.53066e-007 ++++++++++++++to 1.53066e-007
Heightened Def Con from 1.53066e-007 ++++++++++++++to 1.53066e-007
Heightened Def Con from 1.53066e-007 ++++++++++++++to 1.53066e-007
Heightened Def Con from 1.53066e-007 ++++++++++++++to 1.53066e-007
Heightened Def Con from 1.53066e-007 ++++++++++++++to 1.53066e-007
Heightened Def Con from 1.53066e-007 ++++++++++++++to 1.53066e-007
Heightened Def Con from 1.53066e-007 ++++++++++++++to 1.53066e-007
Heightened Def Con from 1.53066e-007 ++++++++++++++to 1.53066e-007
Heightened Def Con from 1.53066e-007 ++++++++++++++to 1.53066e-007
Heightened Def Con from 1.53066e-007 ++++++++++++++to 1.53066e-007
Heightened Def Con from 1.53066e-007 ++++++++++++++to 1.53066e-007
Heightened Def Con from 1.53066e-007 ++++++++++++++to 1.53066e-007
Heightened Def Con from 1.53066e-007 ++++++++++++++to 1.53066e-007
Heightened Def Con from 1.53066e-007 ++++++++++++++to 1.53066e-007
Heightened Def Con from 1.53066e-007 ++++++++++++++to 1.53066e-007
Heightened Def Con from 1.53066e-007 ++++++++++++++to 1.53066e-007
Heightened Def Con from 1.53066e-007 ++++++++++++++to 1.53066e-007
Heightened Def Con from 1.53066e-007 ++++++++++++++to 1.53066e-007
Heightened Def Con from 1.53066e-007 ++++++++++++++to 1.53066e-007
Heightened Def Con from 1.53066e-007 ++++++++++++++to 1.53066e-007
Heightened Def Con from 1.53066e-007 ++++++++++++++to 1.53066e-007
Heightened Def Con from 1.53066e-007 ++++++++++++++to 1.53066e-007
Heightened Def Con from 1.53066e-007 ++++++++++++++to 1.53066e-007
Heightened Def Con from 1.53066e-007 ++++++++++++++to 1.53066e-007
Heightened Def Con from 1.53066e-007 ++++++++++++++to 1.53066e-007
Heightened Def Con from 1.53066e-007 ++++++++++++++to 1.53066e-007
Heightened Def Con from 1.53066e-007 ++++++++++++++to 1.53066e-007
Heightened Def Con from 1.53066e-007 ++++++++++++++to 1.53066e-007
Heightened Def Con from 1.53066e-007 ++++++++++++++to 1.53066e-007
Heightened Def Con from 1.53066e-007 ++++++++++++++to 1.53066e-007
Heightened Def Con from 1.53066e-007 ++++++++++++++to 1.53066e-007
Heightened Def Con from 1.53066e-007 ++++++++++++++to 1.53066e-007
Heightened Def Con from 1.53066e-007 ++++++++++++++to 1.53066e-007
Heightened Def Con from 1.53066e-007 ++++++++++++++to 1.53066e-007
Heightened Def Con from 1.53066e-007 ++++++++++++++to 1.53066e-007
Heightened Def Con from 1.53066e-007 ++++++++++++++to 1.53066e-007
Heightened Def Con from 1.53066e-007 ++++++++++++++to 1.53066e-007
Heightened Def Con from 1.53066e-007 ++++++++++++++to 1.53066e-007
Heightened Def Con from 1.53066e-007 ++++++++++++++to 1.53066e-007
Heightened Def Con from 1.53066e-007 ++++++++++++++to 1.53066e-007
Heightened Def Con from 1.53066e-007 ++++++++++++++to 1.53066e-007
Heightened Def Con from 1.53066e-007 ++++++++++++++to 1.53066e-007
Heightened Def Con from 1.53066e-007 ++++++++++++++to 1.53066e-007
Heightened Def Con from 1.53066e-007 ++++++++++++++to 1.53066e-007
Heightened Def Con from 1.53066e-007 ++++++++++++++to 1.53066e-007
Heightened Def Con from 1.53066e-007 ++++++++++++++to 1.53066e-007
Heightened Def Con from 1.53066e-007 ++++++++++++++to 1.53066e-007
Heightened Def Con from 1.53066e-007 ++++++++++++++to 1.53066e-007
Heightened Def Con from 1.53066e-007 ++++++++++++++to 1.53066e-007
Heightened Def Con from 1.53066e-007 ++++++++++++++to 1.53066e-007
Heightened Def Con from 1.53066e-007 ++++++++++++++to 1.53066e-007
Heightened Def Con from 1.53066e-007 ++++++++++++++to 1.53066e-007
Heightened Def Con from 1.53066e-007 ++++++++++++++to 1.53066e-007
Heightened Def Con from 1.53066e-007 ++++++++++++++to 1.53066e-007
Heightened Def Con from 1.53066e-007 ++++++++++++++to 1.53066e-007
Heightened Def Con from 1.53066e-007 ++++++++++++++to 1.53066e-007
Heightened Def Con from 1.53066e-007 ++++++++++++++to 1.53066e-007
Heightened Def Con from 1.53066e-007 ++++++++++++++to 1.53066e-007
Heightened Def Con from 1.53066e-007 ++++++++++++++to 1.53066e-007
Heightened Def Con from 1.53066e-007 ++++++++++++++to 1.53066e-007
Heightened Def Con from 1.53066e-007 ++++++++++++++to 1.53066e-007
Heightened Def Con from 1.53066e-007 ++++++++++++++to 1.53066e-007
Heightened Def Con from 1.53066e-007 ++++++++++++++to 1.53066e-007
Heightened Def Con from 1.53066e-007 ++++++++++++++to 1.53066e-007
Heightened Def Con from 1.53066e-007 ++++++++++++++to 1.53066e-007
Heightened Def Con from 1.53066e-007 ++++++++++++++to 1.53066e-007
Heightened Def Con from 1.53066e-007 ++++++++++++++to 1.53066e-007
Heightened Def Con from 1.53066e-007 ++++++++++++++to 1.53066e-007
Heightened Def Con from 1.53066e-007 ++++++++++++++to 1.53066e-007
Heightened Def Con from 1.53066e-007 ++++++++++++++to 1.53066e-007
Heightened Def Con from 1.53066e-007 ++++++++++++++to 1.53066e-007
Heightened Def Con from 1.53066e-007 ++++++++++++++to 1.53066e-007
Heightened Def Con from 1.53066e-007 ++++++++++++++to 1.53066e-007
Heightened Def Con from 1.53066e-007 ++++++++++++++to 1.53066e-007
Heightened Def Con from 1.53066e-007 ++++++++++++++to 1.53066e-007
Heightened Def Con from 1.53066e-007 ++++++++++++++to 1.53066e-007
Heightened Def Con from 1.53066e-007 ++++++++++++++to 1.53066e-007
Heightened Def Con from 1.53066e-007 ++++++++++++++to 1.53066e-007
Heightened Def Con from 1.53066e-007 ++++++++++++++to 1.53066e-007
Heightened Def Con from 1.53066e-007 ++++++++++++++to 1.53066e-007
Heightened Def Con from 1.53066e-007 ++++++++++++++to 1.53066e-007
Heightened Def Con from 1.53066e-007 ++++++++++++++to 1.53066e-007
Heightened Def Con from 1.53066e-007 ++++++++++++++to 1.53066e-007
Heightened Def Con from 1.53066e-007 ++++++++++++++to 1.53066e-007
Heightened Def Con from 1.53066e-007 ++++to 1.53066e-007

Date: Wed Dec 15 10:12:15 2021
Total elapsed time: 52.343 seconds.

tnom = 27
temp = 27
method = modified trap
totiter = 549548
traniter = 546866
tranpoints = 52861
accept = 8677
rejected = 48429
matrix size = 635
fillins = 1297
solver = Normal
Thread vector: 71.5/46.4[4] 144.7/56.4[4] 4.7/33.4[1] 3.1/6.7[1]  2592/500
Matrix Compiler1: 92.69 KB object code size  44.6/19.8/[7.9]
Matrix Compiler2: 69.54 KB object code size  27.4/23.2/[7.6]

